
Generated by WebMolKit

  6  6  0  0  1  0  0  0  0  0999 V2000
    0.0000    0.0000    0.0000 Pt  0  5  0  0  0  0  0  0  0  0  0  0
    1.5000    0.0000    0.0000 Cl  0  0  0  0  0  0  0  0  0  0  0  0
    0.0000    1.5000    0.0000 Cl  0  0  0  0  0  0  0  0  0  0  0  0
    0.0000   -1.5000    0.0000 Cl  0  0  0  0  0  0  0  0  0  0  0  0
   -1.5990    0.7500    0.0000 C   0  0  0  0  0  0  0  0  0  0  0  0
   -1.5990   -0.7500    0.0000 C   0  0  0  0  0  0  0  0  0  0  0  0
  1  2  1  0  0  0  0
  1  3  1  0  0  0  0
  1  4  1  0  0  0  0
  1  5  0  0  0  0  0
  5  6  2  0  0  0  0
  6  1  0  0  0  0  0
M  CHG  1   1  -1
M  END