
Generated by WebMolKit

 55 61  0  0  1  0  0  0  0  0999 V2000
    0.0000    0.0000    0.0000 Ru  0  0  0  0  0  0  0  0  0  0  0  0
   -1.7532   -0.4698    0.0000 O   0  0  0  0  0  0  0  0  0  0  0  0
   -1.7290    0.9982    0.0000 C   0  0  0  0  0  2  0  0  0  0  0  0
   -3.0281    1.7482    0.0000 O   0  0  0  0  0  0  0  0  0  0  0  0
   -2.1414   -1.9186    0.0000 C   0  0  0  0  0  0  0  0  0  0  0  0
   -1.0807   -2.9793    0.0000 O   0  0  0  0  0  0  0  0  0  0  0  0
    3.3492    0.0125    0.0000 C   0  0  0  0  0  0  0  0  0  0  0  0
    2.5775    1.2989    0.0000 O   0  0  0  0  0  0  0  0  0  0  0  0
    2.6210   -1.2989    0.0000 O   0  0  0  0  0  0  0  0  0  0  0  0
   -2.0000    2.0000    0.0000 C   0  0  0  0  0  0  0  0  0  0  0  0
    0.0000    4.0000    0.0000 C   0  0  0  0  0  0  0  0  0  0  0  0
    2.0000    2.0000    0.0000 C   0  0  0  0  0  0  0  0  0  0  0  0
   -2.7500    0.7010    0.0000 C   0  0  0  0  0  0  0  0  0  0  0  0
   -2.7500    3.2990    0.0000 C   0  0  0  0  0  0  0  0  0  0  0  0
   -4.2500    0.7010    0.0000 C   0  0  0  0  0  0  0  0  0  0  0  0
   -5.0000    2.0000    0.0000 C   0  0  0  0  0  0  0  0  0  0  0  0
   -4.2500    3.2990    0.0000 C   0  0  0  0  0  0  0  0  0  0  0  0
   -1.2990    4.7500    0.0000 C   0  0  0  0  0  0  0  0  0  0  0  0
    1.2990    4.7500    0.0000 C   0  0  0  0  0  0  0  0  0  0  0  0
   -1.2990    6.2500    0.0000 C   0  0  0  0  0  0  0  0  0  0  0  0
    0.0000    7.0000    0.0000 C   0  0  0  0  0  0  0  0  0  0  0  0
    1.2990    6.2500    0.0000 C   0  0  0  0  0  0  0  0  0  0  0  0
    2.7500    3.2990    0.0000 C   0  0  0  0  0  0  0  0  0  0  0  0
    2.7500    0.7010    0.0000 C   0  0  0  0  0  0  0  0  0  0  0  0
    4.2500    3.2990    0.0000 C   0  0  0  0  0  0  0  0  0  0  0  0
    5.0000    2.0000    0.0000 C   0  0  0  0  0  0  0  0  0  0  0  0
    4.2500    0.7010    0.0000 C   0  0  0  0  0  0  0  0  0  0  0  0
    0.0000    2.0000    0.0000 P   0  0  0  0  0  0  0  0  0  0  0  0
    2.0000   -2.0000    0.0000 C   0  0  0  0  0  0  0  0  0  0  0  0
    0.0000   -4.0000    0.0000 C   0  0  0  0  0  0  0  0  0  0  0  0
   -2.0000   -2.0000    0.0000 C   0  0  0  0  0  0  0  0  0  0  0  0
    2.7500   -0.7010    0.0000 C   0  0  0  0  0  0  0  0  0  0  0  0
    2.7500   -3.2990    0.0000 C   0  0  0  0  0  0  0  0  0  0  0  0
    4.2500   -0.7010    0.0000 C   0  0  0  0  0  0  0  0  0  0  0  0
    5.0000   -2.0000    0.0000 C   0  0  0  0  0  0  0  0  0  0  0  0
    4.2500   -3.2990    0.0000 C   0  0  0  0  0  0  0  0  0  0  0  0
    1.2990   -4.7500    0.0000 C   0  0  0  0  0  0  0  0  0  0  0  0
   -1.2990   -4.7500    0.0000 C   0  0  0  0  0  0  0  0  0  0  0  0
    1.2990   -6.2500    0.0000 C   0  0  0  0  0  0  0  0  0  0  0  0
    0.0000   -7.0000    0.0000 C   0  0  0  0  0  0  0  0  0  0  0  0
   -1.2990   -6.2500    0.0000 C   0  0  0  0  0  0  0  0  0  0  0  0
   -2.7500   -3.2990    0.0000 C   0  0  0  0  0  0  0  0  0  0  0  0
   -2.7500   -0.7010    0.0000 C   0  0  0  0  0  0  0  0  0  0  0  0
   -4.2500   -3.2990    0.0000 C   0  0  0  0  0  0  0  0  0  0  0  0
   -5.0000   -2.0000    0.0000 C   0  0  0  0  0  0  0  0  0  0  0  0
   -4.2500   -0.7010    0.0000 C   0  0  0  0  0  0  0  0  0  0  0  0
    0.0000   -2.0000    0.0000 P   0  0  0  0  0  0  0  0  0  0  0  0
   -3.2020   -3.7558    0.0000 F   0  0  0  0  0  0  0  0  0  0  0  0
   -3.9786   -0.8580    0.0000 F   0  0  0  0  0  0  0  0  0  0  0  0
   -5.0391   -2.6952    0.0000 F   0  0  0  0  0  0  0  0  0  0  0  0
   -3.5903   -2.3069    0.0000 C   0  0  0  0  0  0  0  0  0  0  0  0
    4.8240    1.5373    0.0000 F   0  0  0  0  0  0  0  0  0  0  0  0
    4.8740   -1.4623    0.0000 F   0  0  0  0  0  0  0  0  0  0  0  0
    6.3488    0.0625    0.0000 F   0  0  0  0  0  0  0  0  0  0  0  0
    4.8490    0.0375    0.0000 C   0  0  0  0  0  0  0  0  0  0  0  0
  1  2  1  0  0  0  0
  1  3  0  0  0  0  0
  3  4  2  0  0  0  0
  2  5  1  0  0  0  0
  5  6  2  0  0  0  0
  7  8  2  0  0  0  0
  7  9  1  0  0  0  0
  9  1  1  0  0  0  0
  8  1  0  0  0  0  0
 28 10  1  0  0  0  0
 28 11  1  0  0  0  0
 28 12  1  0  0  0  0
 10 13  1  0  0  0  0
 10 14  2  0  0  0  0
 13 15  2  0  0  0  0
 15 16  1  0  0  0  0
 16 17  2  0  0  0  0
 17 14  1  0  0  0  0
 11 18  1  0  0  0  0
 11 19  2  0  0  0  0
 18 20  2  0  0  0  0
 20 21  1  0  0  0  0
 21 22  2  0  0  0  0
 22 19  1  0  0  0  0
 12 23  1  0  0  0  0
 12 24  2  0  0  0  0
 23 25  2  0  0  0  0
 25 26  1  0  0  0  0
 26 27  2  0  0  0  0
 27 24  1  0  0  0  0
  1 28  0  0  0  0  0
 47 29  1  0  0  0  0
 47 30  1  0  0  0  0
 47 31  1  0  0  0  0
 29 32  1  0  0  0  0
 29 33  2  0  0  0  0
 32 34  2  0  0  0  0
 34 35  1  0  0  0  0
 35 36  2  0  0  0  0
 36 33  1  0  0  0  0
 30 37  1  0  0  0  0
 30 38  2  0  0  0  0
 37 39  2  0  0  0  0
 39 40  1  0  0  0  0
 40 41  2  0  0  0  0
 41 38  1  0  0  0  0
 31 42  1  0  0  0  0
 31 43  2  0  0  0  0
 42 44  2  0  0  0  0
 44 45  1  0  0  0  0
 45 46  2  0  0  0  0
 46 43  1  0  0  0  0
  1 47  0  0  0  0  0
 51 48  1  0  0  0  0
 51 49  1  0  0  0  0
 51 50  1  0  0  0  0
  5 51  1  0  0  0  0
 55 52  1  0  0  0  0
 55 53  1  0  0  0  0
 55 54  1  0  0  0  0
  7 55  1  0  0  0  0
M  STY  1   1 SUP
M  SAL   1 15  10  11  12  13  14  15  16  17  18  19  20  21  22  23  24
M  SAL   1  4  25  26  27  28
M  SMT   1 P|Ph{3}
M  STY  1   2 SUP
M  SAL   2 15  29  30  31  32  33  34  35  36  37  38  39  40  41  42  43
M  SAL   2  4  44  45  46  47
M  SMT   2 P|Ph{3}
M  STY  1   3 SUP
M  SAL   3  4  48  49  50  51
M  SMT   3 C|F{3}
M  STY  1   4 SUP
M  SAL   4  4  52  53  54  55
M  SMT   4 C|F{3}
M  END