
Generated by WebMolKit

 11 10  0  0  1  0  0  0  0  0999 V2000
    0.0000    0.0000    0.0000 Fe  0  0  0  0  0  0  0  0  0  0  0  0
    0.0000    1.5000    0.0000 C   0  0  0  0  0  2  0  0  0  0  0  0
    0.0000    3.0000    0.0000 O   0  0  0  0  0  0  0  0  0  0  0  0
    0.0000   -1.5000    0.0000 C   0  0  0  0  0  2  0  0  0  0  0  0
    0.0000   -3.0000    0.0000 O   0  0  0  0  0  0  0  0  0  0  0  0
    1.2991   -0.7500    0.0000 C   0  0  0  0  0  2  0  0  0  0  0  0
    2.5981   -1.5000    0.0000 O   0  0  0  0  0  0  0  0  0  0  0  0
    1.2990    0.7500    0.0000 C   0  0  0  0  0  2  0  0  0  0  0  0
    2.5980    1.5001    0.0000 O   0  0  0  0  0  0  0  0  0  0  0  0
   -1.5000    0.0000    0.0000 C   0  0  0  0  0  2  0  0  0  0  0  0
   -3.0000    0.0000    0.0000 O   0  0  0  0  0  0  0  0  0  0  0  0
  1  2  0  0  0  0  0
  2  3  2  0  0  0  0
  1  4  0  0  0  0  0
  4  5  2  0  0  0  0
  1  6  0  0  0  0  0
  6  7  2  0  0  0  0
  1  8  0  0  0  0  0
  8  9  2  0  0  0  0
  1 10  0  0  0  0  0
 10 11  2  0  0  0  0
M  STY  1   1 SUP
M  SAL   1  2   2   3
M  SMT   1 C|O
M  STY  1   2 SUP
M  SAL   2  2   4   5
M  SMT   2 C|O
M  STY  1   3 SUP
M  SAL   3  2   6   7
M  SMT   3 C|O
M  STY  1   4 SUP
M  SAL   4  2   8   9
M  SMT   4 C|O
M  STY  1   5 SUP
M  SAL   5  2  10  11
M  SMT   5 C|O
M  END